                                  MODFLOW-NWT-SWR1 
      U.S. GEOLOGICAL SURVEY MODULAR FINITE-DIFFERENCE GROUNDWATER-FLOW MODEL
                             VERSION 1.1.4 4/01/2018
                    BASED ON MODFLOW-2005 VERSION 1.12.00 02/03/2017

 LIST FILE: freyberg.list
                         UNIT    2

 OPENING freyberg.dis
 FILE TYPE:DIS   UNIT   11   STATUS:OLD    
 FORMAT:FORMATTED              ACCESS:SEQUENTIAL          

 OPENING freyberg.bas
 FILE TYPE:BAS6   UNIT   13   STATUS:OLD    
 FORMAT:FORMATTED              ACCESS:SEQUENTIAL          

 OPENING freyberg.upw
 FILE TYPE:UPW   UNIT   31   STATUS:OLD    
 FORMAT:FORMATTED              ACCESS:SEQUENTIAL          

 OPENING freyberg.rch
 FILE TYPE:RCH   UNIT   19   STATUS:OLD    
 FORMAT:FORMATTED              ACCESS:SEQUENTIAL          

 OPENING freyberg.nwt
 FILE TYPE:NWT   UNIT   32   STATUS:OLD    
 FORMAT:FORMATTED              ACCESS:SEQUENTIAL          

 OPENING freyberg.oc
 FILE TYPE:OC   UNIT   14   STATUS:OLD    
 FORMAT:FORMATTED              ACCESS:SEQUENTIAL          

 OPENING freyberg.lmt6
 FILE TYPE:LMT6   UNIT   30   STATUS:OLD    
 FORMAT:FORMATTED              ACCESS:SEQUENTIAL          

 OPENING freyberg.wel
 FILE TYPE:WEL   UNIT   20   STATUS:OLD    
 FORMAT:FORMATTED              ACCESS:SEQUENTIAL          

 OPENING freyberg.sfr
 FILE TYPE:SFR   UNIT   17   STATUS:OLD    
 FORMAT:FORMATTED              ACCESS:SEQUENTIAL          

 OPENING freyberg.ghb
 FILE TYPE:GHB   UNIT   23   STATUS:OLD    
 FORMAT:FORMATTED              ACCESS:SEQUENTIAL          

 OPENING freyberg.cbc
 FILE TYPE:DATA(BINARY)   UNIT   50   STATUS:REPLACE
 FORMAT:BINARY                 ACCESS:SEQUENTIAL          

 OPENING freyberg.hds
 FILE TYPE:DATA(BINARY)   UNIT   51   STATUS:REPLACE
 FORMAT:BINARY                 ACCESS:SEQUENTIAL          

 OPENING freyberg.sfr.out
 FILE TYPE:DATA   UNIT   60   STATUS:UNKNOWN
 FORMAT:FORMATTED              ACCESS:SEQUENTIAL          

 BAS -- BASIC PACKAGE, VERSION 1.1.4, 4/01/2018 INPUT READ FROM UNIT   13
 
 MODFLOW was compiled using mixed precision
 Precision of REAL variables:           6
 Precision of DOUBLE PRECISION variables:          15

 DISCRETIZATION INPUT DATA READ FROM UNIT   11
 # DIS package for  MODFLOW-NWT, generated by Flopy.
    3 LAYERS        40 ROWS        20 COLUMNS
    2 STRESS PERIOD(S) IN SIMULATION
 MODEL TIME UNIT IS DAYS
 MODEL LENGTH UNIT IS METERS
  Confining bed flag for each layer:
   0   0   0

                     DELR =   250.000    

                     DELC =   250.000    



           TOP ELEVATION OF LAYER 1
 READING ON UNIT   11 WITH FORMAT: (FREE)              



             MODEL LAYER BOTTOM EL. FOR LAYER   1
 READING ON UNIT   11 WITH FORMAT: (FREE)              



             MODEL LAYER BOTTOM EL. FOR LAYER   2
 READING ON UNIT   11 WITH FORMAT: (FREE)              



             MODEL LAYER BOTTOM EL. FOR LAYER   3
 READING ON UNIT   11 WITH FORMAT: (FREE)              


 STRESS PERIOD     LENGTH       TIME STEPS     MULTIPLIER FOR DELT    SS FLAG
 ----------------------------------------------------------------------------
        1         3650.000          1                    1.000         SS
        2         365.0000          1                    1.000         TR

 COMBINED STEADY-STATE AND TRANSIENT SIMULATION



 
 # BAS6 package for  MODFLOW-NWT, generated by Flopy.                            
 THE FREE FORMAT OPTION HAS BEEN SELECTED



                     BOUNDARY ARRAY FOR LAYER   1
 READING ON UNIT   13 WITH FORMAT: (FREE)              



                     BOUNDARY ARRAY FOR LAYER   2
 READING ON UNIT   13 WITH FORMAT: (FREE)              



                     BOUNDARY ARRAY FOR LAYER   3
 READING ON UNIT   13 WITH FORMAT: (FREE)              

 AQUIFER HEAD WILL BE SET TO  -999.99     AT ALL NO-FLOW NODES (IBOUND=0).



                       INITIAL HEAD FOR LAYER   1
 READING ON UNIT   13 WITH FORMAT: (FREE)              



                       INITIAL HEAD FOR LAYER   2
 READING ON UNIT   13 WITH FORMAT: (FREE)              



                       INITIAL HEAD FOR LAYER   3
 READING ON UNIT   13 WITH FORMAT: (FREE)              
 # OC package for  MODFLOW-NWT, generated by Flopy.

 OUTPUT CONTROL IS SPECIFIED ONLY AT TIME STEPS FOR WHICH OUTPUT IS DESIRED
 COMPACT CELL-BY-CELL BUDGET FILES WILL BE WRITTEN
 AUXILIARY DATA WILL BE SAVED IN CELL-BY-CELL BUDGET FILES
 HEAD PRINT FORMAT CODE IS   0    DRAWDOWN PRINT FORMAT CODE IS   0
 HEADS WILL BE SAVED ON UNIT   51    DRAWDOWNS WILL BE SAVED ON UNIT    0
 # NWT package for  MODFLOW-NWT, generated by Flopy.

 NWT1 -- Newton Solver, VERSION 1.1.4, 4/01/2018
         INPUT READ FROM UNIT 32

 COMPLEX OPTION:
 DEFAULT SOLVER INPUT VALUES REFLECT STRONGLY NONLINEAR MODEL
 ***GMRES linear solver will be used***
 
   CONVERGENCE CRITERION OF   0.100000E-01 FOR HEAD SOLUTION
   AND A TOLERANCE OF   0.500000E+03 FOR FLOW SOLUTION AND 
   A MAXIMUM OF   100 OUTER ITERATIONS. 


   D-B-D REDUCTION FACTOR OF    0.850000E+00 AND 
   A D-B-D INCREASE FACTOR OF    0.100000E-04 AND 
   A D-B-D RELAXATION OF    0.000000E+00 AND 
   A MOMENTUM FACTOR OF    0.100000E+00 .


   BACKTRACKING IS ACTIVE 
   THE MAXIMUM NUMBER OF BACKTRACKS IS    50 AND 
   THE BACKTRACKING TOLERANCE IS    0.110000E+01 AND
   THE BACKTRACKING REDUCTION FACTOR IS    0.700000E+00

 GMRES -- LINEAR SOLUTION BY GMRES PACKAGE 
     adapted for HYDROTHERM by Kipp and others (2008)
     using software originally developed by Saad (1990) 32
     using algorithms described in Saad (2003)

 UPW1 -- UPSTREAM WEIGHTING FLOW PACKAGE, VERSION 1.1.4, 4/01/2018
         INPUT READ FROM UNIT 31

 # UPW package for  MODFLOW-NWT, generated by Flopy.
 CELL-BY-CELL FLOWS WILL BE SAVED ON UNIT   50
 No named parameters

   LAYER FLAGS:
 LAYER       LAYTYP          LAYAVG    CHANI           LAYVKA           LAYWET
 ---------------------------------------------------------------------------
    1             1             0     1.000E+00             0             0
    2             0             0     1.000E+00             0             0
    3             0             0     1.000E+00             0             0

   INTERPRETATION OF LAYER FLAGS:
                        INTERBLOCK     HORIZONTAL    DATA IN
         LAYER TYPE   TRANSMISSIVITY   ANISOTROPY   ARRAY VKA   WETTABILITY
 LAYER   (LAYTYP)        (LAYAVG)      (CHANI)     (LAYVKA)       (LAYWET)
 ---------------------------------------------------------------------------
    1   CONVERTIBLE      HARMONIC     1.000E+00    VERTICAL K  NON-WETTABLE
    2      CONFINED      HARMONIC     1.000E+00    VERTICAL K  NON-WETTABLE
    3      CONFINED      HARMONIC     1.000E+00    VERTICAL K  NON-WETTABLE

    HYD. COND. ALONG ROWS =   3.00000     FOR LAYER   1

      VERTICAL HYD. COND. =  0.300000     FOR LAYER   1



                   SPECIFIC STORAGE FOR LAYER   1
 READING ON UNIT   31 WITH FORMAT: (20E15.6)           



                     SPECIFIC YIELD FOR LAYER   1
 READING ON UNIT   31 WITH FORMAT: (20E15.6)           

    HYD. COND. ALONG ROWS =  0.300000     FOR LAYER   2

      VERTICAL HYD. COND. =  3.000000E-02 FOR LAYER   2



                   SPECIFIC STORAGE FOR LAYER   2
 READING ON UNIT   31 WITH FORMAT: (20E15.6)           

    HYD. COND. ALONG ROWS =   30.0000     FOR LAYER   3

      VERTICAL HYD. COND. =   3.00000     FOR LAYER   3



                   SPECIFIC STORAGE FOR LAYER   3
 READING ON UNIT   31 WITH FORMAT: (20E15.6)           

 WEL -- WELL PACKAGE FOR NWT VERSION 1.1.4,  4/01/2018 INPUT READ FROM UNIT   20
 # WEL package for  MODFLOW-NWT, generated by Flopy.
 No named parameters
 MAXIMUM OF      6 ACTIVE WELLS AT ONE TIME
 CELL-BY-CELL FLOWS WILL BE SAVED ON UNIT   50
 No named parameters
  PHIRAMP WILL BE SET TO A DEFAULT VALUE OF 1.0E-5
  WELLS WITH REDUCED PUMPING WILL BE REPORTED TO THE MAIN LISTING FILE


     0 Well parameters

 GHB -- GENERAL-HEAD BOUNDARY PACKAGE, VERSION 7, 5/2/2005
         INPUT READ FROM UNIT   23
 # GHB package for  MODFLOW-NWT, generated by Flopy.
 No named parameters
 MAXIMUM OF     50 ACTIVE GHB CELLS AT ONE TIME


     0 GHB parameters

 RCH -- RECHARGE PACKAGE, VERSION 7, 5/2/2005 INPUT READ FROM UNIT   19
 # RCH package for  MODFLOW-NWT, generated by Flopy.
 No named parameters
 OPTION 3 -- RECHARGE TO HIGHEST ACTIVE NODE IN EACH VERTICAL COLUMN
 CELL-BY-CELL FLOWS WILL BE SAVED ON UNIT   50


     0 Recharge parameters

 SFR7 -- STREAMFLOW ROUTING PACKAGE, VERSION 1.0.5, 2012-04-05
         INPUT READ FROM UNIT  17
 # SFR package for  MODFLOW-NWT, generated by Flopy.
 No named parameters
  Some stream information will be read by reach. This option replaces NSTRM<0


 NUMBER OF STREAM REACHES IS   40

 NUMBER OF STREAM SEGMENTS IS   40

 NUMBER OF STREAM PARAMETERS IS    0

 NUMBER OF STREAM SEGMENTS DEFINED USING PARAMETERS IS              0

 MAXIMUM ERROR FOR STREAM LEAKAGE RATES IS  1.00E-04

 CONSTANT FOR MANNINGS EQUATION IS  8.6400E+04





 USING DATA INPUT MODIFIED FROM ORIGINAL SFR PROGRAM FOR FARM PACKAGE

 FLOW TO AND FROM GROUND WATER FOR EACH STREAM REACH WILL BE SAVED ON UNIT   50
 STREAM OUTPUT WILL BE WRITTEN TO FILE ON UNIT   60


   STREAM NETWORK DESCRIPTION: 

   LAYER    ROW    COL   SEGMENT   REACH     LENGTH     STREAMBED     STREAMBED   STREAMBED     STREAMBED
                          NUMBER   NUMBER    IN CELL    TOP ELEV.       SLOPE     THICKNESS   HYDR. CONDUCT.        
   ---------------------------------------------------------------------------------------------------------
       1      1     16       1        1    2.5000E+02   3.4000E+01   5.0000E-05   1.0000E+00   1.0000E-01
       1      2     16       2        1    2.5000E+02   3.3987E+01   5.0000E-05   1.0000E+00   1.0000E-01
       1      3     16       3        1    2.5000E+02   3.3974E+01   5.0000E-05   1.0000E+00   1.0000E-01
       1      4     16       4        1    2.5000E+02   3.3962E+01   5.0000E-05   1.0000E+00   1.0000E-01
       1      5     16       5        1    2.5000E+02   3.3949E+01   5.0000E-05   1.0000E+00   1.0000E-01
       1      6     16       6        1    2.5000E+02   3.3936E+01   5.0000E-05   1.0000E+00   1.0000E-01
       1      7     16       7        1    2.5000E+02   3.3923E+01   5.0000E-05   1.0000E+00   1.0000E-01
       1      8     16       8        1    2.5000E+02   3.3910E+01   5.0000E-05   1.0000E+00   1.0000E-01
       1      9     16       9        1    2.5000E+02   3.3897E+01   5.0000E-05   1.0000E+00   1.0000E-01
       1     10     16      10        1    2.5000E+02   3.3885E+01   5.0000E-05   1.0000E+00   1.0000E-01
       1     11     16      11        1    2.5000E+02   3.3872E+01   5.0000E-05   1.0000E+00   1.0000E-01
       1     12     16      12        1    2.5000E+02   3.3859E+01   5.0000E-05   1.0000E+00   1.0000E-01
       1     13     16      13        1    2.5000E+02   3.3846E+01   5.0000E-05   1.0000E+00   1.0000E-01
       1     14     16      14        1    2.5000E+02   3.3833E+01   5.0000E-05   1.0000E+00   1.0000E-01
       1     15     16      15        1    2.5000E+02   3.3821E+01   5.0000E-05   1.0000E+00   1.0000E-01
       1     16     16      16        1    2.5000E+02   3.3808E+01   5.0000E-05   1.0000E+00   1.0000E-01
       1     17     16      17        1    2.5000E+02   3.3795E+01   5.0000E-05   1.0000E+00   1.0000E-01
       1     18     16      18        1    2.5000E+02   3.3782E+01   5.0000E-05   1.0000E+00   1.0000E-01
       1     19     16      19        1    2.5000E+02   3.3769E+01   5.0000E-05   1.0000E+00   1.0000E-01
       1     20     16      20        1    2.5000E+02   3.3756E+01   5.0000E-05   1.0000E+00   1.0000E-01
       1     21     16      21        1    2.5000E+02   3.3744E+01   5.0000E-05   1.0000E+00   1.0000E-01
       1     22     16      22        1    2.5000E+02   3.3731E+01   5.0000E-05   1.0000E+00   1.0000E-01
       1     23     16      23        1    2.5000E+02   3.3718E+01   5.0000E-05   1.0000E+00   1.0000E-01
       1     24     16      24        1    2.5000E+02   3.3705E+01   5.0000E-05   1.0000E+00   1.0000E-01
       1     25     16      25        1    2.5000E+02   3.3692E+01   5.0000E-05   1.0000E+00   1.0000E-01
       1     26     16      26        1    2.5000E+02   3.3679E+01   5.0000E-05   1.0000E+00   1.0000E-01
       1     27     16      27        1    2.5000E+02   3.3667E+01   5.0000E-05   1.0000E+00   1.0000E-01
       1     28     16      28        1    2.5000E+02   3.3654E+01   5.0000E-05   1.0000E+00   1.0000E-01
       1     29     16      29        1    2.5000E+02   3.3641E+01   5.0000E-05   1.0000E+00   1.0000E-01
       1     30     16      30        1    2.5000E+02   3.3628E+01   5.0000E-05   1.0000E+00   1.0000E-01
       1     31     16      31        1    2.5000E+02   3.3615E+01   5.0000E-05   1.0000E+00   1.0000E-01
       1     32     16      32        1    2.5000E+02   3.3603E+01   5.0000E-05   1.0000E+00   1.0000E-01
       1     33     16      33        1    2.5000E+02   3.3590E+01   5.0000E-05   1.0000E+00   1.0000E-01
       1     34     16      34        1    2.5000E+02   3.3577E+01   5.0000E-05   1.0000E+00   1.0000E-01
       1     35     16      35        1    2.5000E+02   3.3564E+01   5.0000E-05   1.0000E+00   1.0000E-01
       1     36     16      36        1    2.5000E+02   3.3551E+01   5.0000E-05   1.0000E+00   1.0000E-01
       1     37     16      37        1    2.5000E+02   3.3538E+01   5.0000E-05   1.0000E+00   1.0000E-01
       1     38     16      38        1    2.5000E+02   3.3526E+01   5.0000E-05   1.0000E+00   1.0000E-01
       1     39     16      39        1    2.5000E+02   3.3513E+01   5.0000E-05   1.0000E+00   1.0000E-01
       1     40     16      40        1    2.5000E+02   3.3500E+01   5.0000E-05   1.0000E+00   1.0000E-01

 *** WARNING *** FIRST OCCURRENCE WHERE A STREAM REACH IS ASSIGNED TO AN INACTIVE CELL IS SEGMENT   40 REACH NO.    1
  IBOUND ARRAY VALUE IS    0 AT LAYER    1; ROW   40; COLUMN   16.

 *** WARNING *** ONLY 1 STREAM REACH WAS ASSIGNED TO A CELL WHERE THE IBOUND ARRAY WAS ZERO.
 PROGRAM SEARCHES FOR UPPERMOST ACTIVE CELL IN VERTICAL COLUMN,IF ALL CELLS ARE INACTIVE, STREAM LEAKAGE WILL NOT BE ALLOWED. 






 ***Link-MT3DMS Package v7***
 OPENING LINK-MT3DMS OUTPUT FILE: mt3d_link.ftl                                                                                                                                                                                           
 ON UNIT NUMBER:    54
 FILE TYPE: FORMATTED  
 HEADER OPTION: EXTENDED
 ***Link-MT3DMS Package v7***

1
                            STRESS PERIOD NO.    1, LENGTH =   3650.000    
                            -----------------------------------------------

                              NUMBER OF TIME STEPS =     1

                               MULTIPLIER FOR DELT =     1.000

                            INITIAL TIME STEP SIZE =   3650.000    

 WELL NO.  LAYER   ROW   COL   STRESS RATE         
 --------------------------------------------------
      1      3     10     17      -375.0    
      2      3     12     14      -375.0    
      3      3     21     15      -375.0    
      4      3     27     11      -375.0    
      5      3     30      7      -375.0    
      6      3     35     13      -375.0    

      6 WELLS

 BOUND. NO. LAYER   ROW   COL     STAGE      CONDUCTANCE         
 ----------------------------------------------------------------
      1      1     40      6       33.50           70.00    
      2      1     40      7       33.50           70.00    
      3      1     40      8       33.50           70.00    
      4      1     40      9       33.50           70.00    
      5      1     40     10       33.50           70.00    
      6      1     40     11       33.50           70.00    
      7      1     40     12       33.50           70.00    
      8      1     40     13       33.50           70.00    
      9      1     40     14       33.50           70.00    
     10      1     40     15       33.50           70.00    
     11      2     40      6       33.50           70.00    
     12      2     40      7       33.50           70.00    
     13      2     40      8       33.50           70.00    
     14      2     40      9       33.50           70.00    
     15      2     40     10       33.50           70.00    
     16      2     40     11       33.50           70.00    
     17      2     40     12       33.50           70.00    
     18      2     40     13       33.50           70.00    
     19      2     40     14       33.50           70.00    
     20      2     40     15       33.50           70.00    
     21      3     40      6       33.50           70.00    
     22      3     40      7       33.50           70.00    
     23      3     40      8       33.50           70.00    
     24      3     40      9       33.50           70.00    
     25      3     40     10       33.50           70.00    
     26      3     40     11       33.50           70.00    
     27      3     40     12       33.50           70.00    
     28      3     40     13       33.50           70.00    
     29      3     40     14       33.50           70.00    
     30      3     40     15       33.50           70.00    
     31      3      1      1       35.50           70.00    
     32      3      1      2       35.50           70.00    
     33      3      1      3       35.50           70.00    
     34      3      1      4       35.50           70.00    
     35      3      1      5       35.50           70.00    
     36      3      1      6       35.50           70.00    
     37      3      1      7       35.50           70.00    
     38      3      1      8       35.50           70.00    
     39      3      1      9       35.50           70.00    
     40      3      1     10       35.50           70.00    
     41      3      1     11       35.50           70.00    
     42      3      1     12       35.50           70.00    
     43      3      1     13       35.50           70.00    
     44      3      1     14       35.50           70.00    
     45      3      1     15       35.50           70.00    
     46      3      1     16       35.50           70.00    
     47      3      1     17       35.50           70.00    
     48      3      1     18       35.50           70.00    
     49      3      1     19       35.50           70.00    
     50      3      1     20       35.50           70.00    

     50 GHB CELLS



                           RECHARGE
 READING ON UNIT   19 WITH FORMAT: (FREE)              



 CLASSIFICATION & COUNT OF STREAM SEGMENTS BASED ON SOURCE OF INFLOW:

                HEADWATER     DIVERSION     RECEIVES TRIBUTARY FLOW
                ---------     ---------     -----------------------
                     1              0              39



                    INPUT DATA FOR EACH STREAM SEGMENT
 ---------------------------------------------------------------------------------------------

 SEGMENT    SEG.     INFLOW   OVERLAND   STREAM    STREAM   ICALC  OUTFLOW  DIVERSION PRIORITY
    NO.    LENGTH     RATE     RUNOFF      ET       PPT.    METH.  TO SEG.  FROM SEG.    NO.

      1  2.500E+02 1.000E+04 0.000E+00 0.000E+00 0.000E+00    1        2        0        0
      2  2.500E+02 0.000E+00 0.000E+00 0.000E+00 0.000E+00    1        3        0        0
      3  2.500E+02 0.000E+00 0.000E+00 0.000E+00 0.000E+00    1        4        0        0
      4  2.500E+02 0.000E+00 0.000E+00 0.000E+00 0.000E+00    1        5        0        0
      5  2.500E+02 0.000E+00 0.000E+00 0.000E+00 0.000E+00    1        6        0        0
      6  2.500E+02 0.000E+00 0.000E+00 0.000E+00 0.000E+00    1        7        0        0
      7  2.500E+02 0.000E+00 0.000E+00 0.000E+00 0.000E+00    1        8        0        0
      8  2.500E+02 0.000E+00 0.000E+00 0.000E+00 0.000E+00    1        9        0        0
      9  2.500E+02 0.000E+00 0.000E+00 0.000E+00 0.000E+00    1       10        0        0
     10  2.500E+02 0.000E+00 0.000E+00 0.000E+00 0.000E+00    1       11        0        0
     11  2.500E+02 0.000E+00 0.000E+00 0.000E+00 0.000E+00    1       12        0        0
     12  2.500E+02 0.000E+00 0.000E+00 0.000E+00 0.000E+00    1       13        0        0
     13  2.500E+02 0.000E+00 0.000E+00 0.000E+00 0.000E+00    1       14        0        0
     14  2.500E+02 0.000E+00 0.000E+00 0.000E+00 0.000E+00    1       15        0        0
     15  2.500E+02 0.000E+00 0.000E+00 0.000E+00 0.000E+00    1       16        0        0
     16  2.500E+02 0.000E+00 0.000E+00 0.000E+00 0.000E+00    1       17        0        0
     17  2.500E+02 0.000E+00 0.000E+00 0.000E+00 0.000E+00    1       18        0        0
     18  2.500E+02 0.000E+00 0.000E+00 0.000E+00 0.000E+00    1       19        0        0
     19  2.500E+02 0.000E+00 0.000E+00 0.000E+00 0.000E+00    1       20        0        0
     20  2.500E+02 0.000E+00 0.000E+00 0.000E+00 0.000E+00    1       21        0        0
     21  2.500E+02 0.000E+00 0.000E+00 0.000E+00 0.000E+00    1       22        0        0
     22  2.500E+02 0.000E+00 0.000E+00 0.000E+00 0.000E+00    1       23        0        0
     23  2.500E+02 0.000E+00 0.000E+00 0.000E+00 0.000E+00    1       24        0        0
     24  2.500E+02 0.000E+00 0.000E+00 0.000E+00 0.000E+00    1       25        0        0
     25  2.500E+02 0.000E+00 0.000E+00 0.000E+00 0.000E+00    1       26        0        0
     26  2.500E+02 0.000E+00 0.000E+00 0.000E+00 0.000E+00    1       27        0        0
     27  2.500E+02 0.000E+00 0.000E+00 0.000E+00 0.000E+00    1       28        0        0
     28  2.500E+02 0.000E+00 0.000E+00 0.000E+00 0.000E+00    1       29        0        0
     29  2.500E+02 0.000E+00 0.000E+00 0.000E+00 0.000E+00    1       30        0        0
     30  2.500E+02 0.000E+00 0.000E+00 0.000E+00 0.000E+00    1       31        0        0
     31  2.500E+02 0.000E+00 0.000E+00 0.000E+00 0.000E+00    1       32        0        0
     32  2.500E+02 0.000E+00 0.000E+00 0.000E+00 0.000E+00    1       33        0        0
     33  2.500E+02 0.000E+00 0.000E+00 0.000E+00 0.000E+00    1       34        0        0
     34  2.500E+02 0.000E+00 0.000E+00 0.000E+00 0.000E+00    1       35        0        0
     35  2.500E+02 0.000E+00 0.000E+00 0.000E+00 0.000E+00    1       36        0        0
     36  2.500E+02 0.000E+00 0.000E+00 0.000E+00 0.000E+00    1       37        0        0
     37  2.500E+02 0.000E+00 0.000E+00 0.000E+00 0.000E+00    1       38        0        0
     38  2.500E+02 0.000E+00 0.000E+00 0.000E+00 0.000E+00    1       39        0        0
     39  2.500E+02 0.000E+00 0.000E+00 0.000E+00 0.000E+00    1       40        0        0
     40  2.500E+02 0.000E+00 0.000E+00 0.000E+00 0.000E+00    1        0        0        0


         STREAMBED PROPERTIES AND STREAM DIMENSIONS

 SEGMENT     WIDTH OF STREAM     DEPTH OF STREAM    STREAM ROUGHNESS
    No.     UPPER     LOWER     UPPER     LOWER     CHANNEL      BANK

     1    5.000E+00 5.000E+00                      1.000E-01
     2    5.000E+00 5.000E+00                      1.000E-01
     3    5.000E+00 5.000E+00                      1.000E-01
     4    5.000E+00 5.000E+00                      1.000E-01
     5    5.000E+00 5.000E+00                      1.000E-01
     6    5.000E+00 5.000E+00                      1.000E-01
     7    5.000E+00 5.000E+00                      1.000E-01
     8    5.000E+00 5.000E+00                      1.000E-01
     9    5.000E+00 5.000E+00                      1.000E-01
    10    5.000E+00 5.000E+00                      1.000E-01
    11    5.000E+00 5.000E+00                      1.000E-01
    12    5.000E+00 5.000E+00                      1.000E-01
    13    5.000E+00 5.000E+00                      1.000E-01
    14    5.000E+00 5.000E+00                      1.000E-01
    15    5.000E+00 5.000E+00                      1.000E-01
    16    5.000E+00 5.000E+00                      1.000E-01
    17    5.000E+00 5.000E+00                      1.000E-01
    18    5.000E+00 5.000E+00                      1.000E-01
    19    5.000E+00 5.000E+00                      1.000E-01
    20    5.000E+00 5.000E+00                      1.000E-01
    21    5.000E+00 5.000E+00                      1.000E-01
    22    5.000E+00 5.000E+00                      1.000E-01
    23    5.000E+00 5.000E+00                      1.000E-01
    24    5.000E+00 5.000E+00                      1.000E-01
    25    5.000E+00 5.000E+00                      1.000E-01
    26    5.000E+00 5.000E+00                      1.000E-01
    27    5.000E+00 5.000E+00                      1.000E-01
    28    5.000E+00 5.000E+00                      1.000E-01
    29    5.000E+00 5.000E+00                      1.000E-01
    30    5.000E+00 5.000E+00                      1.000E-01
    31    5.000E+00 5.000E+00                      1.000E-01
    32    5.000E+00 5.000E+00                      1.000E-01
    33    5.000E+00 5.000E+00                      1.000E-01
    34    5.000E+00 5.000E+00                      1.000E-01
    35    5.000E+00 5.000E+00                      1.000E-01
    36    5.000E+00 5.000E+00                      1.000E-01
    37    5.000E+00 5.000E+00                      1.000E-01
    38    5.000E+00 5.000E+00                      1.000E-01
    39    5.000E+00 5.000E+00                      1.000E-01
    40    5.000E+00 5.000E+00                      1.000E-01



 
 SOLVING FOR HEAD 

    ------------------------------------------------
       NWT REQUIRED            4 OUTER ITERATIONS 
       AND A TOTAL OF         95 INNER ITERATIONS.
    ------------------------------------------------

 OUTPUT CONTROL FOR STRESS PERIOD    1   TIME STEP    1
    SAVE HEAD FOR ALL LAYERS
    SAVE BUDGET
 UBDSV2 SAVING "   CONSTANT HEAD" ON UNIT  50 AT TIME STEP  1, STRESS PERIOD   1
 UBDSV1 SAVING "FLOW RIGHT FACE " ON UNIT  50 AT TIME STEP  1, STRESS PERIOD   1
 UBDSV1 SAVING "FLOW FRONT FACE " ON UNIT  50 AT TIME STEP  1, STRESS PERIOD   1
 UBDSV1 SAVING "FLOW LOWER FACE " ON UNIT  50 AT TIME STEP  1, STRESS PERIOD   1
 UBDSV4 SAVING "           WELLS" ON UNIT  50 AT TIME STEP  1, STRESS PERIOD   1
 UBDSV3 SAVING "        RECHARGE" ON UNIT  50 AT TIME STEP  1, STRESS PERIOD   1
 UBDSV4 SAVING "  STREAM LEAKAGE" ON UNIT  50 AT TIME STEP  1, STRESS PERIOD   1




 SAVING SATURATED THICKNESS AND FLOW TERMS ON UNIT   54 FOR MT3DMS
 BY THE LINK-MT3DMS PACKAGE V7 AT TIME STEP    1, STRESS PERIOD    1


 HEAD WILL BE SAVED ON UNIT   51 AT END OF TIME STEP    1, STRESS PERIOD    1
1
  VOLUMETRIC BUDGET FOR ENTIRE MODEL AT END OF TIME STEP    1, STRESS PERIOD   1
  ------------------------------------------------------------------------------

     CUMULATIVE VOLUMES      L**3       RATES FOR THIS TIME STEP      L**3/T
     ------------------                 ------------------------

           IN:                                      IN:
           ---                                      ---
             STORAGE =           0.0000               STORAGE =           0.0000
       CONSTANT HEAD =           0.0000         CONSTANT HEAD =           0.0000
               WELLS =           0.0000                 WELLS =           0.0000
     HEAD DEP BOUNDS =     1599696.2500       HEAD DEP BOUNDS =         438.2729
            RECHARGE =     9448974.0000              RECHARGE =        2588.7600
      STREAM LEAKAGE =      327185.0938        STREAM LEAKAGE =          89.6398

            TOTAL IN =    11375855.0000              TOTAL IN =        3116.6726

          OUT:                                     OUT:
          ----                                     ----
             STORAGE =           0.0000               STORAGE =           0.0000
       CONSTANT HEAD =           0.0000         CONSTANT HEAD =           0.0000
               WELLS =     8212500.0000                 WELLS =        2250.0000
     HEAD DEP BOUNDS =     1782755.5000       HEAD DEP BOUNDS =         488.4262
            RECHARGE =           0.0000              RECHARGE =           0.0000
      STREAM LEAKAGE =     1380429.6250        STREAM LEAKAGE =         378.1999

           TOTAL OUT =    11375686.0000             TOTAL OUT =        3116.6262

            IN - OUT =         169.0000              IN - OUT =       4.6387E-02

 PERCENT DISCREPANCY =           0.00     PERCENT DISCREPANCY =           0.00






         TIME SUMMARY AT END OF TIME STEP    1 IN STRESS PERIOD    1
                    SECONDS     MINUTES      HOURS       DAYS        YEARS
                    -----------------------------------------------------------
   TIME STEP LENGTH 3.15360E+08 5.25600E+06  87600.      3650.0      9.9932    
 STRESS PERIOD TIME 3.15360E+08 5.25600E+06  87600.      3650.0      9.9932    
         TOTAL TIME 3.15360E+08 5.25600E+06  87600.      3650.0      9.9932    
1
1
                            STRESS PERIOD NO.    2, LENGTH =   365.0000    
                            -----------------------------------------------

                              NUMBER OF TIME STEPS =     1

                               MULTIPLIER FOR DELT =     1.000

                            INITIAL TIME STEP SIZE =   365.0000    

 WELL NO.  LAYER   ROW   COL   STRESS RATE         
 --------------------------------------------------
      1      3     10     17      -300.0    
      2      3     12     14      -300.0    
      3      3     21     15      -300.0    
      4      3     27     11      -300.0    
      5      3     30      7      -300.0    
      6      3     35     13      -300.0    

      6 WELLS

 BOUND. NO. LAYER   ROW   COL     STAGE      CONDUCTANCE         
 ----------------------------------------------------------------
      1      1     40      6       33.50           70.00    
      2      1     40      7       33.50           70.00    
      3      1     40      8       33.50           70.00    
      4      1     40      9       33.50           70.00    
      5      1     40     10       33.50           70.00    
      6      1     40     11       33.50           70.00    
      7      1     40     12       33.50           70.00    
      8      1     40     13       33.50           70.00    
      9      1     40     14       33.50           70.00    
     10      1     40     15       33.50           70.00    
     11      2     40      6       33.50           70.00    
     12      2     40      7       33.50           70.00    
     13      2     40      8       33.50           70.00    
     14      2     40      9       33.50           70.00    
     15      2     40     10       33.50           70.00    
     16      2     40     11       33.50           70.00    
     17      2     40     12       33.50           70.00    
     18      2     40     13       33.50           70.00    
     19      2     40     14       33.50           70.00    
     20      2     40     15       33.50           70.00    
     21      3     40      6       33.50           70.00    
     22      3     40      7       33.50           70.00    
     23      3     40      8       33.50           70.00    
     24      3     40      9       33.50           70.00    
     25      3     40     10       33.50           70.00    
     26      3     40     11       33.50           70.00    
     27      3     40     12       33.50           70.00    
     28      3     40     13       33.50           70.00    
     29      3     40     14       33.50           70.00    
     30      3     40     15       33.50           70.00    
     31      3      1      1       35.50           70.00    
     32      3      1      2       35.50           70.00    
     33      3      1      3       35.50           70.00    
     34      3      1      4       35.50           70.00    
     35      3      1      5       35.50           70.00    
     36      3      1      6       35.50           70.00    
     37      3      1      7       35.50           70.00    
     38      3      1      8       35.50           70.00    
     39      3      1      9       35.50           70.00    
     40      3      1     10       35.50           70.00    
     41      3      1     11       35.50           70.00    
     42      3      1     12       35.50           70.00    
     43      3      1     13       35.50           70.00    
     44      3      1     14       35.50           70.00    
     45      3      1     15       35.50           70.00    
     46      3      1     16       35.50           70.00    
     47      3      1     17       35.50           70.00    
     48      3      1     18       35.50           70.00    
     49      3      1     19       35.50           70.00    
     50      3      1     20       35.50           70.00    

     50 GHB CELLS



                           RECHARGE
 READING ON UNIT   19 WITH FORMAT: (FREE)              

 REUSING STREAM SEGMENT DATA FROM LAST STRESS PERIOD
 
 SOLVING FOR HEAD 

    ------------------------------------------------
       NWT REQUIRED            2 OUTER ITERATIONS 
       AND A TOTAL OF         41 INNER ITERATIONS.
    ------------------------------------------------

 OUTPUT CONTROL FOR STRESS PERIOD    2   TIME STEP    1
    SAVE HEAD FOR ALL LAYERS
    SAVE BUDGET
 UBDSV1 SAVING "         STORAGE" ON UNIT  50 AT TIME STEP  1, STRESS PERIOD   2
 UBDSV2 SAVING "   CONSTANT HEAD" ON UNIT  50 AT TIME STEP  1, STRESS PERIOD   2
 UBDSV1 SAVING "FLOW RIGHT FACE " ON UNIT  50 AT TIME STEP  1, STRESS PERIOD   2
 UBDSV1 SAVING "FLOW FRONT FACE " ON UNIT  50 AT TIME STEP  1, STRESS PERIOD   2
 UBDSV1 SAVING "FLOW LOWER FACE " ON UNIT  50 AT TIME STEP  1, STRESS PERIOD   2
 UBDSV4 SAVING "           WELLS" ON UNIT  50 AT TIME STEP  1, STRESS PERIOD   2
 UBDSV3 SAVING "        RECHARGE" ON UNIT  50 AT TIME STEP  1, STRESS PERIOD   2
 UBDSV4 SAVING "  STREAM LEAKAGE" ON UNIT  50 AT TIME STEP  1, STRESS PERIOD   2




 SAVING SATURATED THICKNESS AND FLOW TERMS ON UNIT   54 FOR MT3DMS
 BY THE LINK-MT3DMS PACKAGE V7 AT TIME STEP    1, STRESS PERIOD    2


 HEAD WILL BE SAVED ON UNIT   51 AT END OF TIME STEP    1, STRESS PERIOD    2
1
  VOLUMETRIC BUDGET FOR ENTIRE MODEL AT END OF TIME STEP    1, STRESS PERIOD   2
  ------------------------------------------------------------------------------

     CUMULATIVE VOLUMES      L**3       RATES FOR THIS TIME STEP      L**3/T
     ------------------                 ------------------------

           IN:                                      IN:
           ---                                      ---
             STORAGE =        1614.6792               STORAGE =           4.4238
       CONSTANT HEAD =           0.0000         CONSTANT HEAD =           0.0000
               WELLS =           0.0000                 WELLS =           0.0000
     HEAD DEP BOUNDS =     1763096.7500       HEAD DEP BOUNDS =         447.6725
            RECHARGE =    10282707.0000              RECHARGE =        2284.2000
      STREAM LEAKAGE =      347212.4375        STREAM LEAKAGE =          54.8695

            TOTAL IN =    12394630.0000              TOTAL IN =        2791.1658

          OUT:                                     OUT:
          ----                                     ----
             STORAGE =       10854.0889               STORAGE =          29.7372
       CONSTANT HEAD =           0.0000         CONSTANT HEAD =           0.0000
               WELLS =     8869500.0000                 WELLS =        1800.0000
     HEAD DEP BOUNDS =     1970737.5000       HEAD DEP BOUNDS =         515.0190
            RECHARGE =           0.0000              RECHARGE =           0.0000
      STREAM LEAKAGE =     1543502.3750        STREAM LEAKAGE =         446.7747

           TOTAL OUT =    12394594.0000             TOTAL OUT =        2791.5310

            IN - OUT =          36.0000              IN - OUT =          -0.3652

 PERCENT DISCREPANCY =           0.00     PERCENT DISCREPANCY =          -0.01






         TIME SUMMARY AT END OF TIME STEP    1 IN STRESS PERIOD    2
                    SECONDS     MINUTES      HOURS       DAYS        YEARS
                    -----------------------------------------------------------
   TIME STEP LENGTH 3.15360E+07 5.25600E+05  8760.0      365.00     0.99932    
 STRESS PERIOD TIME 3.15360E+07 5.25600E+05  8760.0      365.00     0.99932    
         TOTAL TIME 3.46896E+08 5.78160E+06  96360.      4015.0      10.992    
1

 Run end date and time (yyyy/mm/dd hh:mm:ss): 2020/02/24  9:18:49
 Elapsed run time:  0.125 Seconds

